!-Generator IDFEditor 1.49
!-Option OriginalOrderTop UseSpecialFormat

!-NOTE: All comments with '!-' are ignored by the IDFEditor and are generated automatically.
!-      Use '!' comments if they need to be retained when using the IDFEditor.

AvailabilityManager:Scheduled,
    VAV Sys 1 Avail,         !- Name
    FanAvailSched;           !- Schedule Name

Output:Variable,*,Site Outdoor Air Wetbulb Temperature,Timestep;
Output:Variable,SPACE2-1,Zone Thermostat Cooling Setpoint Temperature,Timestep;
Output:Variable,SPACE2-1,Zone Total Internal Radiant Heating Rate,Timestep;
Output:Variable,SPACE2-1,Air System Total Cooling Energy,Timestep;

Schedule:Compact,
    Clg-SetP-Sch,            !- Name
    Temperature,             !- Schedule Type Limits Name
    Through: 12/31,          !- Field 1
    For: SummerDesignDay,    !- Field 2
    Until: 24:00, 24,        !- Field 4
    For: WinterDesignDay,    !- Field 5
    Until: 24:00, 40.0,      !- Field 7
    For: WeekDays,           !- Field 8
    Until: 8:00, 40.0,       !- Field 10
    Until:10:30, 24,         !- Field 12
    Until: 11:00, 2.182530373707414e+01,
                             !- Field 14
    Until: 11:30, 2.328933993168175e+01,
                             !- Field 16
    Until: 12:00, 2.575243960134685e+01,
                             !- Field 18
    Until: 12:30, 2.010580904409289e+01,
                             !- Field 20
    Until: 13:30, 2.206682025082409e+01,
                             !- Field 22
    Until: 18:00, 24.0,      !- Field 24
    Until: 24:00, 40.0,      !- Field 26
    For: WeekEnds Holiday,   !- Field 27
    Until: 24:00, 40,        !- Field 29
    For: AllOtherDays,       !- Field 30
    Until: 24:00, 40.0;      !- Field 32

SizingPeriod:DesignDay,
    Beijing Ann Htg 99.6% Condns DB,  !- Name
    1,                       !- Month
    21,                      !- Day of Month
    WinterDesignDay,         !- Day Type
    -10.8,                   !- Maximum Dry-Bulb Temperature {C}
    0.0,                     !- Daily Dry-Bulb Temperature Range {deltaC}
    DefaultMultipliers,      !- Dry-Bulb Temperature Range Modifier Type
    ,                        !- Dry-Bulb Temperature Range Modifier Day Schedule Name
    Wetbulb,                 !- Humidity Condition Type
    -10.8,                   !- Wetbulb or DewPoint at Maximum Dry-Bulb {C}
    ,                        !- Humidity Condition Day Schedule Name
    ,                        !- Humidity Ratio at Maximum Dry-Bulb {kgWater/kgDryAir}
    ,                        !- Enthalpy at Maximum Dry-Bulb {J/kg}
    ,                        !- Daily Wet-Bulb Temperature Range {deltaC}
    100950.,                 !- Barometric Pressure {Pa}
    2.2,                     !- Wind Speed {m/s}
    340,                     !- Wind Direction {deg}
    No,                      !- Rain Indicator
    No,                      !- Snow Indicator
    No,                      !- Daylight Saving Time Indicator
    ASHRAEClearSky,          !- Solar Model Indicator
    ,                        !- Beam Solar Day Schedule Name
    ,                        !- Diffuse Solar Day Schedule Name
    ,                        !- ASHRAE Clear Sky Optical Depth for Beam Irradiance (taub) {dimensionless}
    ,                        !- ASHRAE Clear Sky Optical Depth for Diffuse Irradiance (taud) {dimensionless}
    0.00;                    !- Sky Clearness

SizingPeriod:DesignDay,
    Beijing Ann Clg .4% Condns DB=>MWB,  !- Name
    7,                       !- Month
    21,                      !- Day of Month
    SummerDesignDay,         !- Day Type
    34.9,                    !- Maximum Dry-Bulb Temperature {C}
    8.9,                     !- Daily Dry-Bulb Temperature Range {deltaC}
    DefaultMultipliers,      !- Dry-Bulb Temperature Range Modifier Type
    ,                        !- Dry-Bulb Temperature Range Modifier Day Schedule Name
    Wetbulb,                 !- Humidity Condition Type
    22.2,                    !- Wetbulb or DewPoint at Maximum Dry-Bulb {C}
    ,                        !- Humidity Condition Day Schedule Name
    ,                        !- Humidity Ratio at Maximum Dry-Bulb {kgWater/kgDryAir}
    ,                        !- Enthalpy at Maximum Dry-Bulb {J/kg}
    ,                        !- Daily Wet-Bulb Temperature Range {deltaC}
    100950.,                 !- Barometric Pressure {Pa}
    3.4,                     !- Wind Speed {m/s}
    180,                     !- Wind Direction {deg}
    No,                      !- Rain Indicator
    No,                      !- Snow Indicator
    No,                      !- Daylight Saving Time Indicator
    ASHRAETau,               !- Solar Model Indicator
    ,                        !- Beam Solar Day Schedule Name
    ,                        !- Diffuse Solar Day Schedule Name
    0.747,                   !- ASHRAE Clear Sky Optical Depth for Beam Irradiance (taub) {dimensionless}
    1.448;                   !- ASHRAE Clear Sky Optical Depth for Diffuse Irradiance (taud) {dimensionless}

Schedule:Compact,
    TimeOfDay-Shanghai,      !- Name
    Any Number,              !- Schedule Type Limits Name
    Through: 12/31,          !- Field 1
    For: Alldays,            !- Field 2
    Until: 7:00, 3,          !- Field 4
    Until: 8:30, 2,          !- Field 6
    Until: 11:30, 4,         !- Field 8
    Until: 14:00, 2,         !- Field 10
    Until: 15:00, 1,         !- Field 12
    Until:17:30, 4,          !- Field 14
    Until:19:00, 2,          !- Field 16
    Until:21:00, 4,          !- Field 18
    Until:23:00, 2,          !- Field 20
    Until:24:00, 3;          !- Field 22

Schedule:Compact,
    TimeOfDay-Qingdao,       !- Name
    Any Number,              !- Schedule Type Limits Name
    Through: 12/31,          !- Field 1
    For: Alldays,            !- Field 2
    Until: 7:00, 3,          !- Field 4
    Until: 8:30, 2,          !- Field 6
    Until: 10:30, 4,         !- Field 8
    Until: 11:30, 1,         !- Field 10
    until: 14:30, 2,         !- Field 12
    Until: 17:30, 4,         !- Field 14
    Until: 19:00, 2,         !- Field 16
    Until: 21:00, 4,         !- Field 18
    Until: 23:00, 2,         !- Field 20
    Until:24:00, 3;          !- Field 22

Schedule:Compact,
    TimeOfDay-Beijing,       !- Name
    Any Number,              !- Schedule Type Limits Name
    Through: 12/31,          !- Field 1
    For: Alldays,            !- Field 2
    Until: 6:00, 3,          !- Field 4
    Until: 9:00, 2,          !- Field 6
    Until: 12:30, 4,         !- Field 8
    Until: 13:30, 1,         !- Field 10
    Until: 14:00, 4,         !- Field 12
    Until: 15:00, 2,         !- Field 14
    Until: 16:00, 4,         !- Field 16
    Until: 17:00, 2,         !- Field 18
    Until: 20:00, 4,         !- Field 20
    Until: 22:00, 2,         !- Field 22
    Until:24:00, 3;          !- Field 24

Schedule:Compact,
    TimeOfDay-ShenZhen,      !- Name
    Any Number,              !- Schedule Type Limits Name
    Through: 12/31,          !- Field 1
    For: Alldays,            !- Field 2
    Until: 7:00, 3,          !- Field 4
    Until: 9:00, 2,          !- Field 6
    Until: 11:30, 4,         !- Field 8
    Until: 14:00, 2,         !- Field 10
    until: 14:30, 4,         !- Field 12
    until: 15:30, 1,         !- Field 14
    Until: 16:30, 4,         !- Field 16
    Until:19:00, 2,          !- Field 18
    Until:21:00, 4,          !- Field 20
    Until:23:00, 2,          !- Field 22
    Until:24:00, 3;          !- Field 24

UtilityCost:Tariff,
    TOUBeijing,              !- Name
    Electricity:Facility,    !- Output Meter Name
    kWh,                     !- Conversion Factor Choice
    ,                        !- Energy Conversion Factor
    ,                        !- Demand Conversion Factor
    TimeOfDay-Beijing,       !- Time of Use Period Schedule Name
    ,                        !- Season Schedule Name
    ,                        !- Month Schedule Name
    HalfHour,                !- Demand Window Length
    ,                        !- Monthly Charge or Variable Name
    ,                        !- Minimum Monthly Charge or Variable Name
    ,                        !- Real Time Pricing Charge Schedule Name
    ,                        !- Customer Baseline Load Schedule Name
    ,                        !- Group Name
    BuyFromUtility;          !- Buy Or Sell

UtilityCost:Charge:Simple,
    WholeYearOnPeak,         !- Name
    TOUBeijing,              !- Tariff Name
    peakEnergy,              !- Source Variable
    Annual,                  !- Season
    EnergyCharges,           !- Category Variable Name
    2.92;                    !- Cost per Unit Value or Variable Name

UtilityCost:Charge:Simple,
    WholeYearOnOff,          !- Name
    TOUBeijing,              !- Tariff Name
    offPeakEnergy,           !- Source Variable
    Annual,                  !- Season
    EnergyCharges,           !- Category Variable Name
    0.3658;                  !- Cost per Unit Value or Variable Name

UtilityCost:Charge:Simple,
    WholeYearOnPeak,         !- Name
    TOUBeijing,              !- Tariff Name
    midPeakEnergy,           !- Source Variable
    Annual,                  !- Season
    EnergyCharges,           !- Category Variable Name
    1.3782;                  !- Cost per Unit Value or Variable Name

UtilityCost:Charge:Simple,
    WholeYearOnShoulder,     !- Name
    TOUBeijing,              !- Tariff Name
    shoulderEnergy,          !- Source Variable
    Annual,                  !- Season
    EnergyCharges,           !- Category Variable Name
    0.8595;                  !- Cost per Unit Value or Variable Name

Schedule:Constant,AirCooling-Fan,Any Number,0;

Schedule:Compact,
    INFIL-SCH,               !- Name
    Fraction,                !- Schedule Type Limits Name
    Through: 3/31,           !- Field 1
    For: AllDays,            !- Field 2
    Until: 24:00, 1,         !- Field 4
    Through: 9/30,           !- Field 5
    For: WeekDays,           !- Field 6
    Until: 7:00, 0,          !- Field 8
    Until:14:00, 0,          !- Field 10
    Until: 15:00, 1,         !- Field 12
    Until: 18:00, 0,         !- Field 14
    Until: 24:00, 1,         !- Field 16
    For: SummerDesignDay WinterDesignDay,  !- Field 17
    Until: 24:00, 0,         !- Field 19
    For: AllOtherDays,       !- Field 20
    Until: 24:00, 0.0,       !- Field 22
    Through: 12/31,          !- Field 23
    For: AllDays,            !- Field 24
    Until: 24:00, 1;         !- Field 26

ZoneAirBalance:OutdoorAir,
    AirBalanceSp11,          !- Name
    SPACE1-1,                !- Zone Name
    Quadrature,              !- Air Balance Method
    ,                        !- Induced Outdoor Air Due to Unbalanced Duct Leakage {m3/s}
    INFIL-SCH;               !- Induced Outdoor Air Schedule Name

ZoneAirBalance:OutdoorAir,
    AirBalanceSp31,          !- Name
    SPACE3-1,                !- Zone Name
    Quadrature,              !- Air Balance Method
    ,                        !- Induced Outdoor Air Due to Unbalanced Duct Leakage {m3/s}
    INFIL-SCH;               !- Induced Outdoor Air Schedule Name

ZoneAirBalance:OutdoorAir,
    AirBalanceSp41,          !- Name
    SPACE4-1,                !- Zone Name
    Quadrature,              !- Air Balance Method
    ,                        !- Induced Outdoor Air Due to Unbalanced Duct Leakage {m3/s}
    INFIL-SCH;               !- Induced Outdoor Air Schedule Name

ZoneAirBalance:OutdoorAir,
    AirBalanceSp51,          !- Name
    SPACE5-1,                !- Zone Name
    Quadrature,              !- Air Balance Method
    ,                        !- Induced Outdoor Air Due to Unbalanced Duct Leakage {m3/s}
    INFIL-SCH;               !- Induced Outdoor Air Schedule Name

Output:Variable,*,CCO2Con ,Timestep;
Output:Variable,Space2-1,Zone Mechanical Ventilation Air Changes per Hour,Timestep;
Output:Variable,SPACE2-1,Zone People Occupant Count,Timestep;
Output:Variable,SPACE2-1,Zone Infiltration Air Change Rate,Timestep;

WindowProperty:ShadingControl,
    Double Pane Between-Glass Blind,  !- Name
    BetweenGlassBlind,       !- Shading Type
    WIN-CON-DOUBLEPANE WITH BETWEEN-GLASS BLIND,  !- Construction with Shading Name
    AlwaysOn,                !- Shading Control Type
    ,                        !- Schedule Name
    ,                        !- Setpoint {W/m2, W or deg C}
    NO,                      !- Shading Control Is Scheduled
    NO,                      !- Glare Control Is Active
    ,                        !- Shading Device Material Name
    FixedSlatAngle,          !- Type of Slat Angle Control for Blinds
    ;                        !- Slat Angle Schedule Name

Construction,
    WIN-CON-DOUBLEPANE WITH BETWEEN-GLASS BLIND,  !- Name
    LoE CLEAR 6MM,           !- Outside Layer
    AIR GAP 20mm,            !- Layer 2
    BLIND,                   !- Layer 3
    AIR GAP 20mm,            !- Layer 4
    CLEAR 6MM;               !- Layer 5

WindowMaterial:Gas,
    AIR GAP 20mm,            !- Name
    AIR,                     !- Gas Type
    0.020;                   !- Thickness {m}

WindowMaterial:Blind,
    BLIND,                   !- Name
    HORIZONTAL,              !- Slat Orientation
    0.025,                   !- Slat Width {m}
    0.019,                   !- Slat Separation {m}
    0.001,                   !- Slat Thickness {m}
    90,                      !- Slat Angle {deg}
    0.1,                     !- Slat Conductivity {W/m-K}
    0.0,                     !- Slat Beam Solar Transmittance
    0.7,                     !- Front Side Slat Beam Solar Reflectance
    0.7,                     !- Back Side Slat Beam Solar Reflectance
    0.0,                     !- Slat Diffuse Solar Transmittance
    0.7,                     !- Front Side Slat Diffuse Solar Reflectance
    0.7,                     !- Back Side Slat Diffuse Solar Reflectance
    0.0,                     !- Slat Beam Visible Transmittance
    0.5,                     !- Front Side Slat Beam Visible Reflectance
    0.5,                     !- Back Side Slat Beam Visible Reflectance
    0.0,                     !- Slat Diffuse Visible Transmittance
    0.5,                     !- Front Side Slat Diffuse Visible Reflectance
    0.5,                     !- Back Side Slat Diffuse Visible Reflectance
    0.0,                     !- Slat Infrared Hemispherical Transmittance
    0.9,                     !- Front Side Slat Infrared Hemispherical Emissivity
    0.9,                     !- Back Side Slat Infrared Hemispherical Emissivity
    0.050,                   !- Blind to Glass Distance {m}
    0.0,                     !- Blind Top Opening Multiplier
    0.0,                     !- Blind Bottom Opening Multiplier
    0.5,                     !- Blind Left Side Opening Multiplier
    0.5,                     !- Blind Right Side Opening Multiplier
    0,                       !- Minimum Slat Angle {deg}
    180;                     !- Maximum Slat Angle {deg}

Construction,
    WIN-CON-DOUBLEPANE,      !- Name
    LoE CLEAR 6MM,           !- Outside Layer
    AIR GAP 40mm,            !- Layer 2
    CLEAR 6MM;               !- Layer 3

WindowMaterial:Gas,
    AIR GAP 40mm,            !- Name
    AIR,                     !- Gas Type
    0.040;                   !- Thickness {m}

InternalMass,
    InternalMassDifinition,  !- Name
    WALL-1,                  !- Construction Name
    SPACE2-1,                !- Zone Name
    100;                     !- Surface Area {m2}

Schedule:Constant,Htg-SetP-Sch,Temperature,18;
Output:Variable,Clg-SetP-Sch,Schedule Value ,Timestep;

Schedule:Day:Hourly,
    CoolingSetpointSummerDesignday,  !- Name
    Temperature,             !- Schedule Type Limits Name
    26,                      !- Hour 1
    26,                      !- Hour 2
    26,                      !- Hour 3
    26,                      !- Hour 4
    26,                      !- Hour 5
    26,                      !- Hour 6
    26,                      !- Hour 7
    26,                      !- Hour 8
    26,                      !- Hour 9
    26,                      !- Hour 10
    26,                      !- Hour 11
    26,                      !- Hour 12
    26,                      !- Hour 13
    26,                      !- Hour 14
    26,                      !- Hour 15
    26,                      !- Hour 16
    26,                      !- Hour 17
    26,                      !- Hour 18
    26,                      !- Hour 19
    26,                      !- Hour 20
    26,                      !- Hour 21
    26,                      !- Hour 22
    26,                      !- Hour 23
    26;                      !- Hour 24

Schedule:Day:List,
    CoolingSetpointWorkday,  !- Name
    Temperature,             !- Schedule Type Limits Name
    No,                      !- Interpolate to Timestep
    15,                      !- Minutes per Item
    40,                      !- Value 1
    40,                      !- N3
    40,                      !- N4
    40,                      !- N5
    40,                      !- N6
    40,                      !- N7
    40,                      !- N8
    40,                      !- N9
    40,                      !- N10
    40,                      !- N11
    40,                      !- N12
    40,                      !- N13
    40,                      !- N14
    40,                      !- N15
    40,                      !- N16
    40,                      !- N17
    40,                      !- N18
    40,                      !- N19
    40,                      !- N20
    40,                      !- N21
    40,                      !- N22
    40,                      !- N23
    40,                      !- N24
    40,                      !- N25
    40,                      !- N26
    40,                      !- N27
    40,                      !- N28
    40,                      !- N29
    40,                      !- N30
    40,                      !- N31
    40,                      !- N32
    40,                      !- N33
    26,                      !- N34
    26,                      !- N35
    26,                      !- N36
    26,                      !- N37
    26,                      !- N38
    26,                      !- N39
    26,                      !- N40
    26,                      !- N41
    26,                      !- N42
    26,                      !- N43
    26,                      !- N44
    26,                      !- N45
    26,                      !- N46
    26,                      !- N47
    26,                      !- N48
    26,                      !- N49
    26,                      !- N50
    26,                      !- N51
    26,                      !- N52
    26,                      !- N53
    26,                      !- N54
    26,                      !- N55
    26,                      !- N56
    26,                      !- N57
    26,                      !- N58
    26,                      !- N59
    26,                      !- N60
    26,                      !- N61
    26,                      !- N62
    26,                      !- N63
    26,                      !- N64
    26,                      !- N65
    26,                      !- N66
    26,                      !- N67
    26,                      !- N68
    26,                      !- N69
    26,                      !- N70
    26,                      !- N71
    26,                      !- N72
    26,                      !- N73
    40,                      !- N74
    40,                      !- N75
    40,                      !- N76
    40,                      !- N77
    40,                      !- N78
    40,                      !- N79
    40,                      !- N80
    40,                      !- N81
    40,                      !- N82
    40,                      !- N83
    40,                      !- N84
    40,                      !- N85
    40,                      !- N86
    40,                      !- N87
    40,                      !- N88
    40,                      !- N89
    40,                      !- N90
    40,                      !- N91
    40,                      !- N92
    40,                      !- N93
    40,                      !- N94
    40,                      !- N95
    40,                      !- N96
    40;                      !- N97

WindowMaterial:Glazing,
    LoE SPEC SEL CLEAR 6MM,  !- Name
    SpectralAverage,         !- Optical Data Type
    ,                        !- Window Glass Spectral Data Set Name
    0.006,                   !- Thickness {m}
    0.430,                   !- Solar Transmittance at Normal Incidence
    0.300,                   !- Front Side Solar Reflectance at Normal Incidence
    0.420,                   !- Back Side Solar Reflectance at Normal Incidence
    0.770,                   !- Visible Transmittance at Normal Incidence
    0.070,                   !- Front Side Visible Reflectance at Normal Incidence
    0.060,                   !- Back Side Visible Reflectance at Normal Incidence
    0.0,                     !- Infrared Transmittance at Normal Incidence
    0.84,                    !- Front Side Infrared Hemispherical Emissivity
    0.03,                    !- Back Side Infrared Hemispherical Emissivity
    0.9;                     !- Conductivity {W/m-K}

Material,
    G06 50mm wood,           !- Name
    MediumSmooth,            !- Roughness
    0.0508,                  !- Thickness {m}
    0.15,                    !- Conductivity {W/m-K}
    608,                     !- Density {kg/m3}
    1630;                    !- Specific Heat {J/kg-K}

Schedule:Constant,Air Velocity-Fan,Any Number,0;
Schedule:Constant,FanAvailSched,Any Number,0;
Site:GroundTemperature:BuildingSurface,18,18,18,23,25,27,28,29,26,22,20,18;
Output:Variable,Air Velocity-Fan,Schedule Value,Timestep;
Output:Variable,SPACE2-1,Zone Mechanical Ventilation Mass Flow Rate ,Timestep;
Output:Variable,AirCooling-Fan,Schedule Value,Timestep;
Output:Variable,AirCooling-Fan,Schedule Value,Timestep;
Output:Meter,Electricity:Facility ,Timestep;
Output:Meter,Electricity:HVAC ,Timestep;
Output:Meter,Electricity:Building ,Timestep;
Output:Meter,Fans:Electricity ,Timestep;
Output:Variable,SPACE2-1 People 1,Zone Thermal Comfort Clothing Value,Timestep;
Output:Variable,SPACE2-1 People 1,Zone Thermal Comfort Mean Radiant Temperature,Timestep;
Output:Variable,*,Site Outdoor Air Drybulb Temperature ,Timestep;

ElectricEquipment,
    SPACE2-1 Fan,            !- Name
    SPACE2-1,                !- Zone or ZoneList Name
    AirCooling-Fan,          !- Schedule Name
    Watts/Area,              !- Design Level Calculation Method
    ,                        !- Design Level {W}
    10,                      !- Watts per Zone Floor Area {W/m2}
    ,                        !- Watts per Person {W/person}
    0,                       !- Fraction Latent
    0.3,                     !- Fraction Radiant
    0;                       !- Fraction Lost

Output:Variable,FanAvailSched,Schedule Value,Timestep;

Output:EnergyManagementSystem,
    Verbose,                 !- Actuator Availability Dictionary Reporting
    Verbose,                 !- Internal Variable Availability Dictionary Reporting
    Verbose;                 !- EMS Runtime Language Debug Output Level

People,
    SPACE1-1 People 1,       !- Name
    SPACE1-1,                !- Zone or ZoneList Name
    OCCUPY-1,                !- Number of People Schedule Name
    people,                  !- Number of People Calculation Method
    11,                      !- Number of People
    ,                        !- People per Zone Floor Area {person/m2}
    ,                        !- Zone Floor Area per Person {m2/person}
    0.3,                     !- Fraction Radiant
    AutoCalculate,           !- Sensible Heat Fraction
    ActSchd,                 !- Activity Level Schedule Name
    ,                        !- Carbon Dioxide Generation Rate {m3/s-W}
    ,                        !- Enable ASHRAE 55 Comfort Warnings
    ZoneAveraged,            !- Mean Radiant Temperature Calculation Type
    ,                        !- Surface Name/Angle Factor List Name
    People Efficiency,       !- Work Efficiency Schedule Name
    DynamicClothingModelASHRAE55,  !- Clothing Insulation Calculation Method
    ,                        !- Clothing Insulation Calculation Method Schedule Name
    ,                        !- Clothing Insulation Schedule Name
    Air Velocity-Fan,        !- Air Velocity Schedule Name
    Fanger;                  !- Thermal Comfort Model 1 Type

People,
    SPACE2-1 People 1,       !- Name
    SPACE2-1,                !- Zone or ZoneList Name
    OCCUPY-1,                !- Number of People Schedule Name
    people,                  !- Number of People Calculation Method
    5,                       !- Number of People
    ,                        !- People per Zone Floor Area {person/m2}
    ,                        !- Zone Floor Area per Person {m2/person}
    0.3,                     !- Fraction Radiant
    AutoCalculate,           !- Sensible Heat Fraction
    ActSchd,                 !- Activity Level Schedule Name
    ,                        !- Carbon Dioxide Generation Rate {m3/s-W}
    ,                        !- Enable ASHRAE 55 Comfort Warnings
    ZoneAveraged,            !- Mean Radiant Temperature Calculation Type
    ,                        !- Surface Name/Angle Factor List Name
    People Efficiency,       !- Work Efficiency Schedule Name
    DynamicClothingModelASHRAE55,  !- Clothing Insulation Calculation Method
    ,                        !- Clothing Insulation Calculation Method Schedule Name
    ,                        !- Clothing Insulation Schedule Name
    Air Velocity-Fan,        !- Air Velocity Schedule Name
    Fanger;                  !- Thermal Comfort Model 1 Type

People,
    SPACE3-1 People 1,       !- Name
    SPACE3-1,                !- Zone or ZoneList Name
    OCCUPY-1,                !- Number of People Schedule Name
    people,                  !- Number of People Calculation Method
    11,                      !- Number of People
    ,                        !- People per Zone Floor Area {person/m2}
    ,                        !- Zone Floor Area per Person {m2/person}
    0.3,                     !- Fraction Radiant
    AutoCalculate,           !- Sensible Heat Fraction
    ActSchd,                 !- Activity Level Schedule Name
    ,                        !- Carbon Dioxide Generation Rate {m3/s-W}
    ,                        !- Enable ASHRAE 55 Comfort Warnings
    ZoneAveraged,            !- Mean Radiant Temperature Calculation Type
    ,                        !- Surface Name/Angle Factor List Name
    People Efficiency,       !- Work Efficiency Schedule Name
    DynamicClothingModelASHRAE55,  !- Clothing Insulation Calculation Method
    ,                        !- Clothing Insulation Calculation Method Schedule Name
    ,                        !- Clothing Insulation Schedule Name
    Air Velocity-Fan,        !- Air Velocity Schedule Name
    Fanger;                  !- Thermal Comfort Model 1 Type

People,
    SPACE4-1 People 1,       !- Name
    SPACE4-1,                !- Zone or ZoneList Name
    OCCUPY-1,                !- Number of People Schedule Name
    people,                  !- Number of People Calculation Method
    5,                       !- Number of People
    ,                        !- People per Zone Floor Area {person/m2}
    ,                        !- Zone Floor Area per Person {m2/person}
    0.3,                     !- Fraction Radiant
    AutoCalculate,           !- Sensible Heat Fraction
    ActSchd,                 !- Activity Level Schedule Name
    ,                        !- Carbon Dioxide Generation Rate {m3/s-W}
    ,                        !- Enable ASHRAE 55 Comfort Warnings
    ZoneAveraged,            !- Mean Radiant Temperature Calculation Type
    ,                        !- Surface Name/Angle Factor List Name
    People Efficiency,       !- Work Efficiency Schedule Name
    DynamicClothingModelASHRAE55,  !- Clothing Insulation Calculation Method
    ,                        !- Clothing Insulation Calculation Method Schedule Name
    ,                        !- Clothing Insulation Schedule Name
    Air Velocity-Fan,        !- Air Velocity Schedule Name
    Fanger;                  !- Thermal Comfort Model 1 Type

People,
    SPACE5-1 People 1,       !- Name
    SPACE5-1,                !- Zone or ZoneList Name
    OCCUPY-1,                !- Number of People Schedule Name
    people,                  !- Number of People Calculation Method
    20,                      !- Number of People
    ,                        !- People per Zone Floor Area {person/m2}
    ,                        !- Zone Floor Area per Person {m2/person}
    0.3,                     !- Fraction Radiant
    AutoCalculate,           !- Sensible Heat Fraction
    ActSchd,                 !- Activity Level Schedule Name
    ,                        !- Carbon Dioxide Generation Rate {m3/s-W}
    ,                        !- Enable ASHRAE 55 Comfort Warnings
    ZoneAveraged,            !- Mean Radiant Temperature Calculation Type
    ,                        !- Surface Name/Angle Factor List Name
    People Efficiency,       !- Work Efficiency Schedule Name
    DynamicClothingModelASHRAE55,  !- Clothing Insulation Calculation Method
    ,                        !- Clothing Insulation Calculation Method Schedule Name
    ,                        !- Clothing Insulation Schedule Name
    Air Velocity-Fan,        !- Air Velocity Schedule Name
    Fanger;                  !- Thermal Comfort Model 1 Type

Schedule:Compact,
    People Efficiency,       !- Name
    Fraction,                !- Schedule Type Limits Name
    Through: 12/31,          !- Field 1
    For: AllDays,            !- Field 2
    Until: 24:00, 0.0;       !- Field 4
